<?xml version="1.0" encoding="UTF-8"?>

<routes>
    <vType id="car" accel="2.6" decel="4.5" sigma="0.5" length="5" maxSpeed="25"/>

    <!-- Vertical (North-South) through the intersection -->
    <route id="north_south" edges="B2B1 B1B0"/>
    <route id="south_north" edges="B0B1 B1B2"/>

    <!-- Horizontal (East-West) through the intersection -->
    <route id="east_west" edges="C1B1 B1A1"/>
    <route id="west_east" edges="A1B1 B1C1"/>

    <!-- Traffic flows -->
    <flow id="north_south_flow" type="car" route="north_south" begin="0" end="3600" vehsPerHour="400"/>
    <flow id="south_north_flow" type="car" route="south_north" begin="0" end="3600" vehsPerHour="400"/>

    <flow id="east_west_flow" type="car" route="east_west" begin="0" end="3600" vehsPerHour="400"/>
    <flow id="west_east_flow" type="car" route="west_east" begin="0" end="3600" vehsPerHour="400"/>
</routes>
