<?xml version="1.0" encoding="UTF-8"?>

<!-- generated on 2025-04-13 17:43:00 by Eclipse SUMO netgenerate Version 1.20.0
<configuration xmlns:xsi="http://www.w3.org/2001/XMLSchema-instance" xsi:noNamespaceSchemaLocation="http://sumo.dlr.de/xsd/netgenerateConfiguration.xsd">

    <grid_network>
        <grid value="true"/>
        <grid.number value="3"/>
    </grid_network>

    <output>
        <plain-output-prefix value="simple_grid"/>
    </output>

    <junctions>
        <no-internal-links value="true"/>
    </junctions>

</configuration>
-->

<tlLogics version="1.20" xmlns:xsi="http://www.w3.org/2001/XMLSchema-instance" xsi:noNamespaceSchemaLocation="http://sumo.dlr.de/xsd/tllogic_file.xsd">
</tlLogics>
