<?xml version="1.0" encoding="UTF-8"?>

<!-- generated on 2025-04-13 17:43:00 by Eclipse SUMO netgenerate Version 1.20.0
<configuration xmlns:xsi="http://www.w3.org/2001/XMLSchema-instance" xsi:noNamespaceSchemaLocation="http://sumo.dlr.de/xsd/netgenerateConfiguration.xsd">

    <grid_network>
        <grid value="true"/>
        <grid.number value="3"/>
    </grid_network>

    <output>
        <plain-output-prefix value="simple_grid"/>
    </output>

    <junctions>
        <no-internal-links value="true"/>
    </junctions>

</configuration>
-->

<connections version="1.20" xmlns:xsi="http://www.w3.org/2001/XMLSchema-instance" xsi:noNamespaceSchemaLocation="http://sumo.dlr.de/xsd/connections_file.xsd">
    <connection from="A0A1" to="A1B1" fromLane="0" toLane="0"/>
    <connection from="A0A1" to="A1A2" fromLane="0" toLane="0"/>
    <connection from="A0A1" to="A1A0" fromLane="0" toLane="0"/>

    <connection from="A0B0" to="B0C0" fromLane="0" toLane="0"/>
    <connection from="A0B0" to="B0B1" fromLane="0" toLane="0"/>
    <connection from="A0B0" to="B0A0" fromLane="0" toLane="0"/>

    <connection from="A1A0" to="A0B0" fromLane="0" toLane="0"/>

    <connection from="A1A2" to="A2B2" fromLane="0" toLane="0"/>

    <connection from="A1B1" to="B1B0" fromLane="0" toLane="0"/>
    <connection from="A1B1" to="B1C1" fromLane="0" toLane="0"/>
    <connection from="A1B1" to="B1B2" fromLane="0" toLane="0"/>
    <connection from="A1B1" to="B1A1" fromLane="0" toLane="0"/>

    <connection from="A2A1" to="A1A0" fromLane="0" toLane="0"/>
    <connection from="A2A1" to="A1B1" fromLane="0" toLane="0"/>
    <connection from="A2A1" to="A1A2" fromLane="0" toLane="0"/>

    <connection from="A2B2" to="B2B1" fromLane="0" toLane="0"/>
    <connection from="A2B2" to="B2C2" fromLane="0" toLane="0"/>
    <connection from="A2B2" to="B2A2" fromLane="0" toLane="0"/>

    <connection from="B0A0" to="A0A1" fromLane="0" toLane="0"/>

    <connection from="B0B1" to="B1C1" fromLane="0" toLane="0"/>
    <connection from="B0B1" to="B1B2" fromLane="0" toLane="0"/>
    <connection from="B0B1" to="B1A1" fromLane="0" toLane="0"/>
    <connection from="B0B1" to="B1B0" fromLane="0" toLane="0"/>

    <connection from="B0C0" to="C0C1" fromLane="0" toLane="0"/>

    <connection from="B1A1" to="A1A2" fromLane="0" toLane="0"/>
    <connection from="B1A1" to="A1A0" fromLane="0" toLane="0"/>
    <connection from="B1A1" to="A1B1" fromLane="0" toLane="0"/>

    <connection from="B1B0" to="B0A0" fromLane="0" toLane="0"/>
    <connection from="B1B0" to="B0C0" fromLane="0" toLane="0"/>
    <connection from="B1B0" to="B0B1" fromLane="0" toLane="0"/>

    <connection from="B1B2" to="B2C2" fromLane="0" toLane="0"/>
    <connection from="B1B2" to="B2A2" fromLane="0" toLane="0"/>
    <connection from="B1B2" to="B2B1" fromLane="0" toLane="0"/>

    <connection from="B1C1" to="C1C0" fromLane="0" toLane="0"/>
    <connection from="B1C1" to="C1C2" fromLane="0" toLane="0"/>
    <connection from="B1C1" to="C1B1" fromLane="0" toLane="0"/>

    <connection from="B2A2" to="A2A1" fromLane="0" toLane="0"/>

    <connection from="B2B1" to="B1A1" fromLane="0" toLane="0"/>
    <connection from="B2B1" to="B1B0" fromLane="0" toLane="0"/>
    <connection from="B2B1" to="B1C1" fromLane="0" toLane="0"/>
    <connection from="B2B1" to="B1B2" fromLane="0" toLane="0"/>

    <connection from="B2C2" to="C2C1" fromLane="0" toLane="0"/>

    <connection from="C0B0" to="B0B1" fromLane="0" toLane="0"/>
    <connection from="C0B0" to="B0A0" fromLane="0" toLane="0"/>
    <connection from="C0B0" to="B0C0" fromLane="0" toLane="0"/>

    <connection from="C0C1" to="C1C2" fromLane="0" toLane="0"/>
    <connection from="C0C1" to="C1B1" fromLane="0" toLane="0"/>
    <connection from="C0C1" to="C1C0" fromLane="0" toLane="0"/>

    <connection from="C1B1" to="B1B2" fromLane="0" toLane="0"/>
    <connection from="C1B1" to="B1A1" fromLane="0" toLane="0"/>
    <connection from="C1B1" to="B1B0" fromLane="0" toLane="0"/>
    <connection from="C1B1" to="B1C1" fromLane="0" toLane="0"/>

    <connection from="C1C0" to="C0B0" fromLane="0" toLane="0"/>

    <connection from="C1C2" to="C2B2" fromLane="0" toLane="0"/>

    <connection from="C2B2" to="B2A2" fromLane="0" toLane="0"/>
    <connection from="C2B2" to="B2B1" fromLane="0" toLane="0"/>
    <connection from="C2B2" to="B2C2" fromLane="0" toLane="0"/>

    <connection from="C2C1" to="C1B1" fromLane="0" toLane="0"/>
    <connection from="C2C1" to="C1C0" fromLane="0" toLane="0"/>
    <connection from="C2C1" to="C1C2" fromLane="0" toLane="0"/>

</connections>
