<?xml version="1.0" encoding="UTF-8"?>

<!-- generated on 2025-04-14 10:38:52.694137 by randomTrips.py UNKNOWN
<configuration>
    <net-file value="random.net.xml"/>
    <route-file value="random.rou.xml"/>
    <prefix value="randflow"/>
    <validate value="True"/>
    <end value="1000.0"/>
</configuration>
-->

<!-- generated on 2025-04-14 10:38:52 by Eclipse SUMO duarouter Version 1.20.0
<configuration xmlns:xsi="http://www.w3.org/2001/XMLSchema-instance" xsi:noNamespaceSchemaLocation="http://sumo.dlr.de/xsd/duarouterConfiguration.xsd">

    <input>
        <net-file value="random.net.xml"/>
        <route-files value="trips.trips.xml"/>
    </input>

    <output>
        <output-file value="random.rou.xml"/>
        <alternatives-output value="NUL"/>
    </output>

    <time>
        <begin value="0.0"/>
        <end value="1000.0"/>
    </time>

    <report>
        <no-warnings value="true"/>
        <ignore-errors value="true"/>
        <no-step-log value="true"/>
    </report>

</configuration>
-->

<routes xmlns:xsi="http://www.w3.org/2001/XMLSchema-instance" xsi:noNamespaceSchemaLocation="http://sumo.dlr.de/xsd/routes_file.xsd">
    <vehicle id="randflow0" depart="0.00">
        <route edges="146 -146 -37 49 -1007 -571 577 943 1013 -1016"/>
    </vehicle>
    <vehicle id="randflow1" depart="1.00">
        <route edges="-25 17 -13 15 112 301 -301"/>
    </vehicle>
    <vehicle id="randflow2" depart="2.00">
        <route edges="191 432 -537 -430 597 1121 1648"/>
    </vehicle>
    <vehicle id="randflow3" depart="3.00">
        <route edges="571 1007 -49 37 124 -124"/>
    </vehicle>
    <vehicle id="randflow4" depart="4.00">
        <route edges="-569 595 949 1024 -1024"/>
    </vehicle>
    <vehicle id="randflow5" depart="5.00">
        <route edges="-1656 -1123 -597 430 -325 301 953 1031"/>
    </vehicle>
    <vehicle id="randflow6" depart="6.00">
        <route edges="-1016 -949 -944 945 -416 -150 -154 -116 115 -157 191 -191"/>
    </vehicle>
    <vehicle id="randflow7" depart="7.00">
        <route edges="1493 -718 730 963 1138"/>
    </vehicle>
    <vehicle id="randflow8" depart="8.00">
        <route edges="-1660 -1123 -549 -397 405 728 -836 -566 1004 1493"/>
    </vehicle>
    <vehicle id="randflow9" depart="9.00">
        <route edges="422 -422 -153 152 -147 -1007"/>
    </vehicle>
    <vehicle id="randflow10" depart="10.00">
        <route edges="416 -416 422 970 1671"/>
    </vehicle>
    <vehicle id="randflow11" depart="11.00">
        <route edges="-416 -150 -154 -116 115 -157 173 430 705 1643 -1628"/>
    </vehicle>
    <vehicle id="randflow12" depart="12.00">
        <route edges="939 1007 -49 37 146 558 -558"/>
    </vehicle>
    <vehicle id="randflow13" depart="13.00">
        <route edges="-116 116 -84 52 -33 37 134 -134"/>
    </vehicle>
    <vehicle id="randflow14" depart="14.00">
        <route edges="54 152"/>
    </vehicle>
    <vehicle id="randflow15" depart="15.00">
        <route edges="416 -416 -150 -154 -116 115 -157 191"/>
    </vehicle>
    <vehicle id="randflow16" depart="16.00">
        <route edges="-984 -422 416 -945 944 949"/>
    </vehicle>
    <vehicle id="randflow17" depart="17.00">
        <route edges="-54 84 -116 116"/>
    </vehicle>
    <vehicle id="randflow18" depart="18.00">
        <route edges="49 147 156"/>
    </vehicle>
    <vehicle id="randflow19" depart="19.00">
        <route edges="542 598 -124 146"/>
    </vehicle>
    <vehicle id="randflow20" depart="20.00">
        <route edges="1643 -1628 -297 -112 -15 13 -17 25 106 -106"/>
    </vehicle>
    <vehicle id="randflow21" depart="21.00">
        <route edges="-1667 -707 -540 -393 112 391 -432"/>
    </vehicle>
    <vehicle id="randflow22" depart="22.00">
        <route edges="-1138 -963 -730 -405 -115 116 -84 52 -33"/>
    </vehicle>
    <vehicle id="randflow23" depart="23.00">
        <route edges="-124 -37 49 -1007 -571 -428"/>
    </vehicle>
    <vehicle id="randflow24" depart="24.00">
        <route edges="146 558 -540 -393 112 325 -430 597 -597"/>
    </vehicle>
    <vehicle id="randflow25" depart="25.00">
        <route edges="-52 -25 -9 11 108 191 -295"/>
    </vehicle>
    <vehicle id="randflow26" depart="26.00">
        <route edges="-191 157 405 730"/>
    </vehicle>
    <vehicle id="randflow27" depart="27.00">
        <route edges="1492 -1492 -984 -422 -153 153"/>
    </vehicle>
    <vehicle id="randflow28" depart="28.00">
        <route edges="-1614 -1011 1007 -49 -19 -9 11 108 191"/>
    </vehicle>
    <vehicle id="randflow29" depart="29.00">
        <route edges="-157 173 430 705 -705"/>
    </vehicle>
    <vehicle id="randflow30" depart="30.00">
        <route edges="963 -963 -730 728 -836 -566 984 1492 -1616 -1015 1015 1616"/>
    </vehicle>
    <vehicle id="randflow31" depart="31.00">
        <route edges="1015 1616 -1492 -984 566 836 -728 -405 397 549 1123 1660"/>
    </vehicle>
    <vehicle id="randflow32" depart="32.00">
        <route edges="537 -391 -112 393"/>
    </vehicle>
    <vehicle id="randflow33" depart="33.00">
        <route edges="-1669 -970 -422 416 -945 944 949 1024 -1024"/>
    </vehicle>
    <vehicle id="randflow34" depart="34.00">
        <route edges="-393 -15 13 -17 25 54 153 416 -416"/>
    </vehicle>
    <vehicle id="randflow35" depart="35.00">
        <route edges="-1648 -1121 -549 -397 405 728 -836 -566 566 836"/>
    </vehicle>
    <vehicle id="randflow36" depart="36.00">
        <route edges="558 -540"/>
    </vehicle>
    <vehicle id="randflow37" depart="37.00">
        <route edges="15 112 295 -191 157 405 728 -728"/>
    </vehicle>
    <vehicle id="randflow38" depart="38.00">
        <route edges="7 116 154 150 422 984 -984"/>
    </vehicle>
    <vehicle id="randflow39" depart="39.00">
        <route edges="-19 17 -542 -393"/>
    </vehicle>
    <vehicle id="randflow40" depart="40.00">
        <route edges="1016 -1013 -943 -577 571 1007 -49 37 134 413 -413"/>
    </vehicle>
    <vehicle id="randflow41" depart="41.00">
        <route edges="108 157 -115 116 154 150 416 428 595"/>
    </vehicle>
    <vehicle id="randflow42" depart="42.00">
        <route edges="-543 543 430 -325 -112 -15 -3"/>
    </vehicle>
    <vehicle id="randflow43" depart="43.00">
        <route edges="984 -1025 -156 -106 106"/>
    </vehicle>
    <vehicle id="randflow44" depart="44.00">
        <route edges="-116 115 -157 -108"/>
    </vehicle>
    <vehicle id="randflow45" depart="45.00">
        <route edges="-134 -37 49 -1007 1011 1606"/>
    </vehicle>
    <vehicle id="randflow46" depart="46.00">
        <route edges="405 728 -836 -566 984 1492 -1616 -1015 -943"/>
    </vehicle>
    <vehicle id="randflow47" depart="47.00">
        <route edges="-1119 705 -705"/>
    </vehicle>
    <vehicle id="randflow48" depart="48.00">
        <route edges="984 -984 -422 -153 -54 -25 17 -13 15 112"/>
    </vehicle>
    <vehicle id="randflow49" depart="49.00">
        <route edges="945 -416 -150 -154 -116 115 397 543"/>
    </vehicle>
    <vehicle id="randflow50" depart="50.00">
        <route edges="-1011 1007 -49 -19 -9 11 108 173"/>
    </vehicle>
    <vehicle id="randflow51" depart="51.00">
        <route edges="156 -416 -150 -154 -116 115 397 549 1121"/>
    </vehicle>
    <vehicle id="randflow52" depart="52.00">
        <route edges="-191 157 -115 116 154 150 416 -945 944 949 1024 1619"/>
    </vehicle>
    <vehicle id="randflow53" depart="53.00">
        <route edges="-134 -37 49 -1007 -571 595 949 -949"/>
    </vehicle>
    <vehicle id="randflow54" depart="54.00">
        <route edges="-705 -430 -543 -397 -115 116 154 150 416 428 569 939"/>
    </vehicle>
    <vehicle id="randflow55" depart="55.00">
        <route edges="558 707 -413"/>
    </vehicle>
    <vehicle id="randflow56" depart="56.00">
        <route edges="-944 945 -416 422 970 1671 -1694"/>
    </vehicle>
    <vehicle id="randflow57" depart="57.00">
        <route edges="7 554"/>
    </vehicle>
    <vehicle id="randflow58" depart="58.00">
        <route edges="-325 -112 -15 13 -17 25 54 153 416 -945 943 1015 1616"/>
    </vehicle>
    <vehicle id="randflow59" depart="59.00">
        <route edges="1123 -1123 -549 -397 405 728 -836 -566 984 1492 -1616"/>
    </vehicle>
    <vehicle id="randflow60" depart="60.00">
        <route edges="325 -430 597 1123"/>
    </vehicle>
    <vehicle id="randflow61" depart="61.00">
        <route edges="391 -391 -112 112"/>
    </vehicle>
    <vehicle id="randflow62" depart="62.00">
        <route edges="-1004 -422 -153 -54 -25 17 -542"/>
    </vehicle>
    <vehicle id="randflow63" depart="63.00">
        <route edges="-1015 -943 945 -416 422 566 836 -728 718"/>
    </vehicle>
    <vehicle id="randflow64" depart="64.00">
        <route edges="566 836 -836 -566 -422 -153 -54 51"/>
    </vehicle>
    <vehicle id="randflow65" depart="65.00">
        <route edges="-37 -19 -9 11 108 173 430 705 1642 -1119"/>
    </vehicle>
    <vehicle id="randflow66" depart="66.00">
        <route edges="558 -558 -146 -37 33 -52 84"/>
    </vehicle>
    <vehicle id="randflow67" depart="67.00">
        <route edges="-115 116 154 150 416 -945 944 949 1016"/>
    </vehicle>
    <vehicle id="randflow68" depart="68.00">
        <route edges="-112 112 325"/>
    </vehicle>
    <vehicle id="randflow69" depart="69.00">
        <route edges="325 -430 -173 -108 -11 9 25 106 -152"/>
    </vehicle>
    <vehicle id="randflow70" depart="70.00">
        <route edges="-730 -405 -115 115"/>
    </vehicle>
    <vehicle id="randflow71" depart="71.00">
        <route edges="-19 -9 7 554"/>
    </vehicle>
    <vehicle id="randflow72" depart="72.00">
        <route edges="-569 571 1007 -49 37 124 -541 -393 112 297 -297"/>
    </vehicle>
    <vehicle id="randflow73" depart="73.00">
        <route edges="1004 1493 -718 -405 -157 191"/>
    </vehicle>
    <vehicle id="randflow74" depart="74.00">
        <route edges="-1643 -705 -430 -173 -108 -11 9 25 54 -54"/>
    </vehicle>
    <vehicle id="randflow75" depart="75.00">
        <route edges="970 -970 566 836 -728 -405 -157 191 -295 297 1628"/>
    </vehicle>
    <vehicle id="randflow76" depart="76.00">
        <route edges="-595 571 1007 -49 -19 -9 11 108"/>
    </vehicle>
    <vehicle id="randflow77" depart="77.00">
        <route edges="-147 -49 -19 -9 11 108 173 430 -325"/>
    </vehicle>
    <vehicle id="randflow78" depart="78.00">
        <route edges="-416 422 984 1492"/>
    </vehicle>
    <vehicle id="randflow79" depart="79.00">
        <route edges="-1669 -970 566 836 -728 -405 -157 191 -295 301 -301"/>
    </vehicle>
    <vehicle id="randflow80" depart="80.00">
        <route edges="-1121 -549 -397 -115 116 -84 106 -147 -1007 1011 1614"/>
    </vehicle>
    <vehicle id="randflow81" depart="81.00">
        <route edges="-1667 -707 -540 -393 112 325 -430 597"/>
    </vehicle>
    <vehicle id="randflow82" depart="82.00">
        <route edges="541 -541 -393 112 325 -430 597 1123 -1123"/>
    </vehicle>
    <vehicle id="randflow83" depart="83.00">
        <route edges="-1671 -970 566 836 -728 -405 397 549 1121 1646"/>
    </vehicle>
    <vehicle id="randflow84" depart="84.00">
        <route edges="-1648 -1121 -549 -397 -115 116 154 150 -153"/>
    </vehicle>
    <vehicle id="randflow85" depart="85.00">
        <route edges="730 963 -963 -730 -405 -115 116 -84 52 -33 37 134"/>
    </vehicle>
    <vehicle id="randflow86" depart="86.00">
        <route edges="-730 -405 397"/>
    </vehicle>
    <vehicle id="randflow87" depart="87.00">
        <route edges="416 -416 -150 -154 -116 115 -157 173 -173"/>
    </vehicle>
    <vehicle id="randflow88" depart="88.00">
        <route edges="-1178 -963 -730 728 -836 -566 -422 416 -945"/>
    </vehicle>
    <vehicle id="randflow89" depart="89.00">
        <route edges="-569 -428 -416 422 1004"/>
    </vehicle>
    <vehicle id="randflow90" depart="90.00">
        <route edges="19 -19 -9 11 108 173 597 1121 1648"/>
    </vehicle>
    <vehicle id="randflow91" depart="91.00">
        <route edges="958 -836 -566 -422 -153 -54 52 -33 37 146 -146"/>
    </vehicle>
    <vehicle id="randflow92" depart="92.00">
        <route edges="-549 543 430 -325 -112 393 540 -558"/>
    </vehicle>
    <vehicle id="randflow93" depart="93.00">
        <route edges="542 -13 15 112 325 -430 -543 -397"/>
    </vehicle>
    <vehicle id="randflow94" depart="94.00">
        <route edges="-1628 -297 295 -191 157 405 730 963 -963"/>
    </vehicle>
    <vehicle id="randflow95" depart="95.00">
        <route edges="-569 -428"/>
    </vehicle>
    <vehicle id="randflow96" depart="96.00">
        <route edges="-17 19 37 146 558 707"/>
    </vehicle>
    <vehicle id="randflow97" depart="97.00">
        <route edges="-597 -543 543"/>
    </vehicle>
    <vehicle id="randflow98" depart="98.00">
        <route edges="1011 -1011 1007 -49 -19 -9 11 108 -108"/>
    </vehicle>
    <vehicle id="randflow99" depart="99.00">
        <route edges="984 -984 -422 -153 -54 52"/>
    </vehicle>
    <vehicle id="randflow100" depart="100.00">
        <route edges="945 -416 422 566 836 -728 718"/>
    </vehicle>
    <vehicle id="randflow101" depart="101.00">
        <route edges="54 -54 -25 17 -13 15 112 297 1628 -1643"/>
    </vehicle>
    <vehicle id="randflow102" depart="102.00">
        <route edges="-84 -25 17 -13 15 112 297 -297"/>
    </vehicle>
    <vehicle id="randflow103" depart="103.00">
        <route edges="-543 543 430 705 1642 -1119"/>
    </vehicle>
    <vehicle id="randflow104" depart="104.00">
        <route edges="-54 54 153 422 1004 1493 958"/>
    </vehicle>
    <vehicle id="randflow105" depart="105.00">
        <route edges="-19 -9 7 115 397"/>
    </vehicle>
    <vehicle id="randflow106" depart="106.00">
        <route edges="-705 -430 -543 -397 -115 116 154 150 416 -945 943 -943"/>
    </vehicle>
    <vehicle id="randflow107" depart="107.00">
        <route edges="939 -571 -428 -416 422 984"/>
    </vehicle>
    <vehicle id="randflow108" depart="108.00">
        <route edges="1013 -1016 1016 -1013 1015 1616 1706"/>
    </vehicle>
    <vehicle id="randflow109" depart="109.00">
        <route edges="-156 -106 51 -51"/>
    </vehicle>
    <vehicle id="randflow110" depart="110.00">
        <route edges="945 -416 -153 -54 52 -33 37 146"/>
    </vehicle>
    <vehicle id="randflow111" depart="111.00">
        <route edges="1007 -49 -19 -9 3"/>
    </vehicle>
    <vehicle id="randflow112" depart="112.00">
        <route edges="-11 9 25 54 153 422 984 1492"/>
    </vehicle>
    <vehicle id="randflow113" depart="113.00">
        <route edges="-944 -577 571 1007 -49 37 124 -541 541"/>
    </vehicle>
    <vehicle id="randflow114" depart="114.00">
        <route edges="-156 156 -945 943"/>
    </vehicle>
    <vehicle id="randflow115" depart="115.00">
        <route edges="-1138 -963 -730 -405 -115 -7 3 13 -17"/>
    </vehicle>
    <vehicle id="randflow116" depart="116.00">
        <route edges="1119 -1642 -705 -430 597 1121 1648"/>
    </vehicle>
    <vehicle id="randflow117" depart="117.00">
        <route edges="-1671 -970 -422 -153 -54 -25 17 -13 15 -15"/>
    </vehicle>
    <vehicle id="randflow118" depart="118.00">
        <route edges="571 1007 -49 37 124 -541 -393"/>
    </vehicle>
    <vehicle id="randflow119" depart="119.00">
        <route edges="1119 -1642 -705 -430 -173 -108 -11 9 25 106 156"/>
    </vehicle>
    <vehicle id="randflow120" depart="120.00">
        <route edges="-566 -422 -153 152 -147 147"/>
    </vehicle>
    <vehicle id="randflow121" depart="121.00">
        <route edges="-958 -718 730"/>
    </vehicle>
    <vehicle id="randflow122" depart="122.00">
        <route edges="-1643 -705 -430 -543 -397 405 728 -836 -566 984 1492 1706"/>
    </vehicle>
    <vehicle id="randflow123" depart="123.00">
        <route edges="-1693 -970 566 836 -728"/>
    </vehicle>
    <vehicle id="randflow124" depart="124.00">
        <route edges="153 -153 -54 52 -33 33 -52"/>
    </vehicle>
    <vehicle id="randflow125" depart="125.00">
        <route edges="-393 -15 -3 3"/>
    </vehicle>
    <vehicle id="randflow126" depart="126.00">
        <route edges="-1121 -549 -397 405 728 -836 -566 984 -984"/>
    </vehicle>
    <vehicle id="randflow127" depart="127.00">
        <route edges="984"/>
    </vehicle>
    <vehicle id="randflow128" depart="128.00">
        <route edges="-1121 -597 430 -325 297 -297"/>
    </vehicle>
    <vehicle id="randflow129" depart="129.00">
        <route edges="-19 -9 7 115 405 728"/>
    </vehicle>
    <vehicle id="randflow130" depart="130.00">
        <route edges="566"/>
    </vehicle>
    <vehicle id="randflow131" depart="131.00">
        <route edges="-52 -25 -9 11 108 173 430 705 1643 -1628"/>
    </vehicle>
    <vehicle id="randflow132" depart="132.00">
        <route edges="51 150 422 970 1693"/>
    </vehicle>
    <vehicle id="randflow133" depart="133.00">
        <route edges="1123 -1123 -549 -397 405 730 963"/>
    </vehicle>
    <vehicle id="randflow134" depart="134.00">
        <route edges="1493 -1493 -1004 -422 -153 152 -147 -1007"/>
    </vehicle>
    <vehicle id="randflow135" depart="135.00">
        <route edges="428 571 1007 -49 33 -52"/>
    </vehicle>
    <vehicle id="randflow136" depart="136.00">
        <route edges="150 422 566 836 -728 730"/>
    </vehicle>
    <vehicle id="randflow137" depart="137.00">
        <route edges="-15 -3 7 115 405 718 -1493"/>
    </vehicle>
    <vehicle id="randflow138" depart="138.00">
        <route edges="-13 -3 7 116"/>
    </vehicle>
    <vehicle id="randflow139" depart="139.00">
        <route edges="-25 25 54 152"/>
    </vehicle>
    <vehicle id="randflow140" depart="140.00">
        <route edges="1694 -1671 -970 -422 -153 -54 -25"/>
    </vehicle>
    <vehicle id="randflow141" depart="141.00">
        <route edges="134 413 -413"/>
    </vehicle>
    <vehicle id="randflow142" depart="142.00">
        <route edges="-9 11 108 173 597"/>
    </vehicle>
    <vehicle id="randflow143" depart="143.00">
        <route edges="54 -54 -25 17 -13"/>
    </vehicle>
    <vehicle id="randflow144" depart="144.00">
        <route edges="-569 -428"/>
    </vehicle>
    <vehicle id="randflow145" depart="145.00">
        <route edges="-1004 566 836 -728 -405 -157 191 -295 391"/>
    </vehicle>
    <vehicle id="randflow146" depart="146.00">
        <route edges="146 558 707 -413"/>
    </vehicle>
    <vehicle id="randflow147" depart="147.00">
        <route edges="25 84 -116 116"/>
    </vehicle>
    <vehicle id="randflow148" depart="148.00">
        <route edges="-571 571 1011 -1011"/>
    </vehicle>
    <vehicle id="randflow149" depart="149.00">
        <route edges="-1123 -549 -397 405 728 -836 -566 566"/>
    </vehicle>
    <vehicle id="randflow150" depart="150.00">
        <route edges="597 -549 -397 405 730 963 1138"/>
    </vehicle>
    <vehicle id="randflow151" depart="151.00">
        <route edges="51 -51 106 -147 147"/>
    </vehicle>
    <vehicle id="randflow152" depart="152.00">
        <route edges="-153 152 -152"/>
    </vehicle>
    <vehicle id="randflow153" depart="153.00">
        <route edges="-37 49 -1007 -571 595"/>
    </vehicle>
    <vehicle id="randflow154" depart="154.00">
        <route edges="409 558 -540 -393 112 325 -430 -543 543"/>
    </vehicle>
    <vehicle id="randflow155" depart="155.00">
        <route edges="595 -944 945 -416 -150 -154 -116 115 -157 191 -295"/>
    </vehicle>
    <vehicle id="randflow156" depart="156.00">
        <route edges="-17 19 37 146 -146"/>
    </vehicle>
    <vehicle id="randflow157" depart="157.00">
        <route edges="391 -432 -191 157 -115 116 154 150 416 428 569"/>
    </vehicle>
    <vehicle id="randflow158" depart="158.00">
        <route edges="-549 -397 -115 116 -84 106 156"/>
    </vehicle>
    <vehicle id="randflow159" depart="159.00">
        <route edges="-156 -106 84 -116 115 405 718"/>
    </vehicle>
    <vehicle id="randflow160" depart="160.00">
        <route edges="543 -543 -397 -115 116 154 150 416 -945 944 949"/>
    </vehicle>
    <vehicle id="randflow161" depart="161.00">
        <route edges="422 566"/>
    </vehicle>
    <vehicle id="randflow162" depart="162.00">
        <route edges="-1016 -949 -595 571 1007 -49 -19 25"/>
    </vehicle>
    <vehicle id="randflow163" depart="163.00">
        <route edges="-413 -134 -37 33 -52 84 -116 115 405 728"/>
    </vehicle>
    <vehicle id="randflow164" depart="164.00">
        <route edges="413 -707 -540 -393 112 325 -430 -543 543"/>
    </vehicle>
    <vehicle id="randflow165" depart="165.00">
        <route edges="422 -422 416 -416"/>
    </vehicle>
    <vehicle id="randflow166" depart="166.00">
        <route edges="397 -397 405 728 -836 -566 984 1492 -1492"/>
    </vehicle>
    <vehicle id="randflow167" depart="167.00">
        <route edges="549 -597 430 -325 -112 393 542"/>
    </vehicle>
    <vehicle id="randflow168" depart="168.00">
        <route edges="-1660 -1123 -597 430"/>
    </vehicle>
    <vehicle id="randflow169" depart="169.00">
        <route edges="-707 -540 -393 112 391 -537"/>
    </vehicle>
    <vehicle id="randflow170" depart="170.00">
        <route edges="409 558 -540 -393 112 325 -325"/>
    </vehicle>
    <vehicle id="randflow171" depart="171.00">
        <route edges="-1016 -949 -595 571 1007 -49 -19"/>
    </vehicle>
    <vehicle id="randflow172" depart="172.00">
        <route edges="-409 -134 -37 -19 -9 11 108 173 -543 543"/>
    </vehicle>
    <vehicle id="randflow173" depart="173.00">
        <route edges="944 -595 -428"/>
    </vehicle>
    <vehicle id="randflow174" depart="174.00">
        <route edges="147 -106 84 -116 115 405 730 963 -963 -730"/>
    </vehicle>
    <vehicle id="randflow175" depart="175.00">
        <route edges="953 -953 -301 325 -430 597 1121"/>
    </vehicle>
    <vehicle id="randflow176" depart="176.00">
        <route edges="730 963 -963 -730 718 -1493"/>
    </vehicle>
    <vehicle id="randflow177" depart="177.00">
        <route edges="945 -416 422 970 1671 -1694"/>
    </vehicle>
    <vehicle id="randflow178" depart="178.00">
        <route edges="943 -943 -577 571 1007 -49 37 134 413 -413"/>
    </vehicle>
    <vehicle id="randflow179" depart="179.00">
        <route edges="-134 -37 33 -52 54 153 416 -945"/>
    </vehicle>
    <vehicle id="randflow180" depart="180.00">
        <route edges="173 430 -325 -112 393 540 -540"/>
    </vehicle>
    <vehicle id="randflow181" depart="181.00">
        <route edges="1121 -1121 -549 -397 -115 116 -84 106"/>
    </vehicle>
    <vehicle id="randflow182" depart="182.00">
        <route edges="-540 541 -124 146"/>
    </vehicle>
    <vehicle id="randflow183" depart="183.00">
        <route edges="-1706 1694"/>
    </vehicle>
    <vehicle id="randflow184" depart="184.00">
        <route edges="-1004 566 836 -728 718"/>
    </vehicle>
    <vehicle id="randflow185" depart="185.00">
        <route edges="1004 1493 -1493 -1004 984 1492 1706"/>
    </vehicle>
    <vehicle id="randflow186" depart="186.00">
        <route edges="25 84 -116 115 397 549 1121 1646"/>
    </vehicle>
    <vehicle id="randflow187" depart="187.00">
        <route edges="-49 -19 -9 11 108 173 597 1121 -1121"/>
    </vehicle>
    <vehicle id="randflow188" depart="188.00">
        <route edges="152 -106 -25 -9 11 108 173 -543"/>
    </vehicle>
    <vehicle id="randflow189" depart="189.00">
        <route edges="-393 393 540"/>
    </vehicle>
    <vehicle id="randflow190" depart="190.00">
        <route edges="17 598 -124 -37 33 -52"/>
    </vehicle>
    <vehicle id="randflow191" depart="191.00">
        <route edges="-391 295 -191 157 -115 116 -84"/>
    </vehicle>
    <vehicle id="randflow192" depart="192.00">
        <route edges="-549 -397 -115 116 154 -51"/>
    </vehicle>
    <vehicle id="randflow193" depart="193.00">
        <route edges="-1493 -1004 -422 416 428 571 -939"/>
    </vehicle>
    <vehicle id="randflow194" depart="194.00">
        <route edges="836 -728 -405 397 549 1121 1648"/>
    </vehicle>
    <vehicle id="randflow195" depart="195.00">
        <route edges="597 -549 -397 -115 116 154"/>
    </vehicle>
    <vehicle id="randflow196" depart="196.00">
        <route edges="-33 -19 -9 7 115"/>
    </vehicle>
    <vehicle id="randflow197" depart="197.00">
        <route edges="-1004 566 836 -728 -405 -157 191 432 -432"/>
    </vehicle>
    <vehicle id="randflow198" depart="198.00">
        <route edges="-571 571 1007 147"/>
    </vehicle>
    <vehicle id="randflow199" depart="199.00">
        <route edges="15 -15 13 -17 25 54 153 422 1004"/>
    </vehicle>
    <vehicle id="randflow200" depart="200.00">
        <route edges="-597 430 -325 297 -297"/>
    </vehicle>
    <vehicle id="randflow201" depart="201.00">
        <route edges="-730 728 -836 -566 -422 416 428 595"/>
    </vehicle>
    <vehicle id="randflow202" depart="202.00">
        <route edges="409 558 -540 -393 112 325 -430 597 1123 -1646"/>
    </vehicle>
    <vehicle id="randflow203" depart="203.00">
        <route edges="-115 -7 11 108"/>
    </vehicle>
    <vehicle id="randflow204" depart="204.00">
        <route edges="134 -134 -37 -19 -9 11 108 173 597 -549"/>
    </vehicle>
    <vehicle id="randflow205" depart="205.00">
        <route edges="430 -430 -173 -108 -11 3"/>
    </vehicle>
    <vehicle id="randflow206" depart="206.00">
        <route edges="153 -153 -54 -25 -9 11 108 173 430 -325"/>
    </vehicle>
    <vehicle id="randflow207" depart="207.00">
        <route edges="-1642 -705 -430 -543 -397 -115 116 154 150 416 -945 943 1013 -1016"/>
    </vehicle>
    <vehicle id="randflow208" depart="208.00">
        <route edges="-1694 -1492 -1025 428 571 1011"/>
    </vehicle>
    <vehicle id="randflow209" depart="209.00">
        <route edges="54 -54 84 -116 115 397 549 1123 -1123"/>
    </vehicle>
    <vehicle id="randflow210" depart="210.00">
        <route edges="-558 -146 -37 49 -1007 1011 1606"/>
    </vehicle>
    <vehicle id="randflow211" depart="211.00">
        <route edges="-1640 -301 295 -191 157 405 728 -836 -566 970 1671"/>
    </vehicle>
    <vehicle id="randflow212" depart="212.00">
        <route edges="-939 -569 571 1007 -49 37 124 -541 -393"/>
    </vehicle>
    <vehicle id="randflow213" depart="213.00">
        <route edges="15 -15 13 598 -124 -37 49 -1007"/>
    </vehicle>
    <vehicle id="randflow214" depart="214.00">
        <route edges="297 -297 -112 393 541 -124 -37 37"/>
    </vehicle>
    <vehicle id="randflow215" depart="215.00">
        <route edges="-13 13 -17 25 54 153 416 -945 943 -943"/>
    </vehicle>
    <vehicle id="randflow216" depart="216.00">
        <route edges="-1616 -1015 -943 943"/>
    </vehicle>
    <vehicle id="randflow217" depart="217.00">
        <route edges="-953 -301 295 -191 -108"/>
    </vehicle>
    <vehicle id="randflow218" depart="218.00">
        <route edges="-17 17 -542 540"/>
    </vehicle>
    <vehicle id="randflow219" depart="219.00">
        <route edges="-705 -430 -543 -397 -115 116 154 150 416"/>
    </vehicle>
    <vehicle id="randflow220" depart="220.00">
        <route edges="152 -106 84 -116 115 405 730 963"/>
    </vehicle>
    <vehicle id="randflow221" depart="221.00">
        <route edges="1119 -1642 -705 -430 -173 -108 -11 9"/>
    </vehicle>
    <vehicle id="randflow222" depart="222.00">
        <route edges="571 1007 147 -106 84 154"/>
    </vehicle>
    <vehicle id="randflow223" depart="223.00">
        <route edges="1694 -1671 -970 566 836 -728 -405 -157 191 -295 301 953 1031"/>
    </vehicle>
    <vehicle id="randflow224" depart="224.00">
        <route edges="49 147 -106 84 -116 115"/>
    </vehicle>
    <vehicle id="randflow225" depart="225.00">
        <route edges="595 -595 571 1007 -49 37 124 -541 -393 112 297"/>
    </vehicle>
    <vehicle id="randflow226" depart="226.00">
        <route edges="-730 -405 -115 116 -84 52 -33 37 146 -409"/>
    </vehicle>
    <vehicle id="randflow227" depart="227.00">
        <route edges="-1694 -1616 -1015 1015 1616"/>
    </vehicle>
    <vehicle id="randflow228" depart="228.00">
        <route edges="325 -430 -173 -108 -11 11"/>
    </vehicle>
    <vehicle id="randflow229" depart="229.00">
        <route edges="13 -17 25 54 153 422 -422"/>
    </vehicle>
    <vehicle id="randflow230" depart="230.00">
        <route edges="-1123 -597 430 537 -432"/>
    </vehicle>
    <vehicle id="randflow231" depart="231.00">
        <route edges="-25 19 37 124 -541"/>
    </vehicle>
    <vehicle id="randflow232" depart="232.00">
        <route edges="1004 1493 -1493 -1004 -422 -150 -154"/>
    </vehicle>
    <vehicle id="randflow233" depart="233.00">
        <route edges="-1669 1669"/>
    </vehicle>
    <vehicle id="randflow234" depart="234.00">
        <route edges="1646 -1123 -597 430 -325 -112"/>
    </vehicle>
    <vehicle id="randflow235" depart="235.00">
        <route edges="-554 115 405 730 963 1138"/>
    </vehicle>
    <vehicle id="randflow236" depart="236.00">
        <route edges="-558 558 -540 -393 112 295 -295"/>
    </vehicle>
    <vehicle id="randflow237" depart="237.00">
        <route edges="-566 566 836 -728 -405 397 543 597"/>
    </vehicle>
    <vehicle id="randflow238" depart="238.00">
        <route edges="106 -152 153 422 970 1669"/>
    </vehicle>
    <vehicle id="randflow239" depart="239.00">
        <route edges="541 -124 -37 33"/>
    </vehicle>
    <vehicle id="randflow240" depart="240.00">
        <route edges="-54 106 -147 -1007"/>
    </vehicle>
    <vehicle id="randflow241" depart="241.00">
        <route edges="-430 430 -325 301"/>
    </vehicle>
    <vehicle id="randflow242" depart="242.00">
        <route edges="540 -558 -146 -37 49 -1007 -571 569 939"/>
    </vehicle>
    <vehicle id="randflow243" depart="243.00">
        <route edges="-566 566 836 -728 -405 -157 191 -295 297"/>
    </vehicle>
    <vehicle id="randflow244" depart="244.00">
        <route edges="1007 147 -152 152"/>
    </vehicle>
    <vehicle id="randflow245" depart="245.00">
        <route edges="-1660 -1123 -597 430 -325 -112 -15 -3"/>
    </vehicle>