<?xml version="1.0" encoding="UTF-8"?>

<!-- generated on 2025-04-14 10:38:52.765856 by randomTrips.py UNKNOWN
<configuration>
    <net-file value="random.net.xml"/>
    <route-file value="random.rou.xml"/>
    <prefix value="randflow"/>
    <validate value="True"/>
    <end value="1000.0"/>
</configuration>
-->

<!-- generated on 2025-04-14 10:38:52 by Eclipse SUMO duarouter Version 1.20.0
<configuration xmlns:xsi="http://www.w3.org/2001/XMLSchema-instance" xsi:noNamespaceSchemaLocation="http://sumo.dlr.de/xsd/duarouterConfiguration.xsd">

    <input>
        <net-file value="random.net.xml"/>
        <route-files value="trips.trips.xml"/>
    </input>

    <output>
        <output-file value="trips.trips.xml.tmp"/>
        <alternatives-output value="NUL"/>
        <write-trips value="true"/>
    </output>

    <time>
        <begin value="0.0"/>
        <end value="1000.0"/>
    </time>

    <report>
        <no-warnings value="true"/>
        <ignore-errors value="true"/>
        <no-step-log value="true"/>
    </report>

</configuration>
-->

<routes xmlns:xsi="http://www.w3.org/2001/XMLSchema-instance" xsi:noNamespaceSchemaLocation="http://sumo.dlr.de/xsd/routes_file.xsd">
    <trip id="randflow0" depart="0.00" from="146" to="-1016"/>
    <trip id="randflow1" depart="1.00" from="-25" to="-301"/>
    <trip id="randflow2" depart="2.00" from="191" to="1648"/>
    <trip id="randflow3" depart="3.00" from="571" to="-124"/>
    <trip id="randflow4" depart="4.00" from="-569" to="-1024"/>
    <trip id="randflow5" depart="5.00" from="-1656" to="1031"/>
    <trip id="randflow6" depart="6.00" from="-1016" to="-191"/>
    <trip id="randflow7" depart="7.00" from="1493" to="1138"/>
    <trip id="randflow8" depart="8.00" from="-1660" to="1493"/>
    <trip id="randflow9" depart="9.00" from="422" to="-1007"/>
    <trip id="randflow10" depart="10.00" from="416" to="1671"/>
    <trip id="randflow11" depart="11.00" from="-416" to="-1628"/>
    <trip id="randflow12" depart="12.00" from="939" to="-558"/>
    <trip id="randflow13" depart="13.00" from="-116" to="-134"/>
    <trip id="randflow14" depart="14.00" from="54" to="152"/>
    <trip id="randflow15" depart="15.00" from="416" to="191"/>
    <trip id="randflow16" depart="16.00" from="-984" to="949"/>
    <trip id="randflow17" depart="17.00" from="-54" to="116"/>
    <trip id="randflow18" depart="18.00" from="49" to="156"/>
    <trip id="randflow19" depart="19.00" from="542" to="146"/>
    <trip id="randflow20" depart="20.00" from="1643" to="-106"/>
    <trip id="randflow21" depart="21.00" from="-1667" to="-432"/>
    <trip id="randflow22" depart="22.00" from="-1138" to="-33"/>
    <trip id="randflow23" depart="23.00" from="-124" to="-428"/>
    <trip id="randflow24" depart="24.00" from="146" to="-597"/>
    <trip id="randflow25" depart="25.00" from="-52" to="-295"/>
    <trip id="randflow26" depart="26.00" from="-191" to="730"/>
    <trip id="randflow27" depart="27.00" from="1492" to="153"/>
    <trip id="randflow28" depart="28.00" from="-1614" to="191"/>
    <trip id="randflow29" depart="29.00" from="-157" to="-705"/>
    <trip id="randflow30" depart="30.00" from="963" to="1616"/>
    <trip id="randflow31" depart="31.00" from="1015" to="1660"/>
    <trip id="randflow32" depart="32.00" from="537" to="393"/>
    <trip id="randflow33" depart="33.00" from="-1669" to="-1024"/>
    <trip id="randflow34" depart="34.00" from="-393" to="-416"/>
    <trip id="randflow35" depart="35.00" from="-1648" to="836"/>
    <trip id="randflow36" depart="36.00" from="558" to="-540"/>
    <trip id="randflow37" depart="37.00" from="15" to="-728"/>
    <trip id="randflow38" depart="38.00" from="7" to="-984"/>
    <trip id="randflow39" depart="39.00" from="-19" to="-393"/>
    <trip id="randflow40" depart="40.00" from="1016" to="-413"/>
    <trip id="randflow41" depart="41.00" from="108" to="595"/>
    <trip id="randflow42" depart="42.00" from="-543" to="-3"/>
    <trip id="randflow43" depart="43.00" from="984" to="106"/>
    <trip id="randflow44" depart="44.00" from="-116" to="-108"/>
    <trip id="randflow45" depart="45.00" from="-134" to="1606"/>
    <trip id="randflow46" depart="46.00" from="405" to="-943"/>
    <trip id="randflow47" depart="47.00" from="-1119" to="-705"/>
    <trip id="randflow48" depart="48.00" from="984" to="112"/>
    <trip id="randflow49" depart="49.00" from="945" to="543"/>
    <trip id="randflow50" depart="50.00" from="-1011" to="173"/>
    <trip id="randflow51" depart="51.00" from="156" to="1121"/>
    <trip id="randflow52" depart="52.00" from="-191" to="1619"/>
    <trip id="randflow53" depart="53.00" from="-134" to="-949"/>
    <trip id="randflow54" depart="54.00" from="-705" to="939"/>
    <trip id="randflow55" depart="55.00" from="558" to="-413"/>
    <trip id="randflow56" depart="56.00" from="-944" to="-1694"/>
    <trip id="randflow57" depart="57.00" from="7" to="554"/>
    <trip id="randflow58" depart="58.00" from="-325" to="1616"/>
    <trip id="randflow59" depart="59.00" from="1123" to="-1616"/>
    <trip id="randflow60" depart="60.00" from="325" to="1123"/>
    <trip id="randflow61" depart="61.00" from="391" to="112"/>
    <trip id="randflow62" depart="62.00" from="-1004" to="-542"/>
    <trip id="randflow63" depart="63.00" from="-1015" to="718"/>
    <trip id="randflow64" depart="64.00" from="566" to="51"/>
    <trip id="randflow65" depart="65.00" from="-37" to="-1119"/>
    <trip id="randflow66" depart="66.00" from="558" to="84"/>
    <trip id="randflow67" depart="67.00" from="-115" to="1016"/>
    <trip id="randflow68" depart="68.00" from="-112" to="325"/>
    <trip id="randflow69" depart="69.00" from="325" to="-152"/>
    <trip id="randflow70" depart="70.00" from="-730" to="115"/>
    <trip id="randflow71" depart="71.00" from="-19" to="554"/>
    <trip id="randflow72" depart="72.00" from="-569" to="-297"/>
    <trip id="randflow73" depart="73.00" from="1004" to="191"/>
    <trip id="randflow74" depart="74.00" from="-1643" to="-54"/>
    <trip id="randflow75" depart="75.00" from="970" to="1628"/>
    <trip id="randflow76" depart="76.00" from="-595" to="108"/>
    <trip id="randflow77" depart="77.00" from="-147" to="-325"/>
    <trip id="randflow78" depart="78.00" from="-416" to="1492"/>
    <trip id="randflow79" depart="79.00" from="-1669" to="-301"/>
    <trip id="randflow80" depart="80.00" from="-1121" to="1614"/>
    <trip id="randflow81" depart="81.00" from="-1667" to="597"/>
    <trip id="randflow82" depart="82.00" from="541" to="-1123"/>
    <trip id="randflow83" depart="83.00" from="-1671" to="1646"/>
    <trip id="randflow84" depart="84.00" from="-1648" to="-153"/>
    <trip id="randflow85" depart="85.00" from="730" to="134"/>
    <trip id="randflow86" depart="86.00" from="-730" to="397"/>
    <trip id="randflow87" depart="87.00" from="416" to="-173"/>
    <trip id="randflow88" depart="88.00" from="-1178" to="-945"/>
    <trip id="randflow89" depart="89.00" from="-569" to="1004"/>
    <trip id="randflow90" depart="90.00" from="19" to="1648"/>
    <trip id="randflow91" depart="91.00" from="958" to="-146"/>
    <trip id="randflow92" depart="92.00" from="-549" to="-558"/>
    <trip id="randflow93" depart="93.00" from="542" to="-397"/>
    <trip id="randflow94" depart="94.00" from="-1628" to="-963"/>
    <trip id="randflow95" depart="95.00" from="-569" to="-428"/>
    <trip id="randflow96" depart="96.00" from="-17" to="707"/>
    <trip id="randflow97" depart="97.00" from="-597" to="543"/>
    <trip id="randflow98" depart="98.00" from="1011" to="-108"/>
    <trip id="randflow99" depart="99.00" from="984" to="52"/>
    <trip id="randflow100" depart="100.00" from="945" to="718"/>
    <trip id="randflow101" depart="101.00" from="54" to="-1643"/>
    <trip id="randflow102" depart="102.00" from="-84" to="-297"/>
    <trip id="randflow103" depart="103.00" from="-543" to="-1119"/>
    <trip id="randflow104" depart="104.00" from="-54" to="958"/>
    <trip id="randflow105" depart="105.00" from="-19" to="397"/>
    <trip id="randflow106" depart="106.00" from="-705" to="-943"/>
    <trip id="randflow107" depart="107.00" from="939" to="984"/>
    <trip id="randflow108" depart="108.00" from="1013" to="1706"/>
    <trip id="randflow109" depart="109.00" from="-156" to="-51"/>
    <trip id="randflow110" depart="110.00" from="945" to="146"/>
    <trip id="randflow111" depart="111.00" from="1007" to="3"/>
    <trip id="randflow112" depart="112.00" from="-11" to="1492"/>
    <trip id="randflow113" depart="113.00" from="-944" to="541"/>
    <trip id="randflow114" depart="114.00" from="-156" to="943"/>
    <trip id="randflow115" depart="115.00" from="-1138" to="-17"/>
    <trip id="randflow116" depart="116.00" from="1119" to="1648"/>
    <trip id="randflow117" depart="117.00" from="-1671" to="-15"/>
    <trip id="randflow118" depart="118.00" from="571" to="-393"/>
    <trip id="randflow119" depart="119.00" from="1119" to="156"/>
    <trip id="randflow120" depart="120.00" from="-566" to="147"/>
    <trip id="randflow121" depart="121.00" from="-958" to="730"/>
    <trip id="randflow122" depart="122.00" from="-1643" to="1706"/>
    <trip id="randflow123" depart="123.00" from="-1693" to="-728"/>
    <trip id="randflow124" depart="124.00" from="153" to="-52"/>
    <trip id="randflow125" depart="125.00" from="-393" to="3"/>
    <trip id="randflow126" depart="126.00" from="-1121" to="-984"/>
    <trip id="randflow127" depart="127.00" from="984" to="984"/>
    <trip id="randflow128" depart="128.00" from="-1121" to="-297"/>
    <trip id="randflow129" depart="129.00" from="-19" to="728"/>
    <trip id="randflow130" depart="130.00" from="566" to="566"/>
    <trip id="randflow131" depart="131.00" from="-52" to="-1628"/>
    <trip id="randflow132" depart="132.00" from="51" to="1693"/>
    <trip id="randflow133" depart="133.00" from="1123" to="963"/>
    <trip id="randflow134" depart="134.00" from="1493" to="-1007"/>
    <trip id="randflow135" depart="135.00" from="428" to="-52"/>
    <trip id="randflow136" depart="136.00" from="150" to="730"/>
    <trip id="randflow137" depart="137.00" from="-15" to="-1493"/>
    <trip id="randflow138" depart="138.00" from="-13" to="116"/>
    <trip id="randflow139" depart="139.00" from="-25" to="152"/>
    <trip id="randflow140" depart="140.00" from="1694" to="-25"/>
    <trip id="randflow141" depart="141.00" from="134" to="-413"/>
    <trip id="randflow142" depart="142.00" from="-9" to="597"/>
    <trip id="randflow143" depart="143.00" from="54" to="-13"/>
    <trip id="randflow144" depart="144.00" from="-569" to="-428"/>
    <trip id="randflow145" depart="145.00" from="-1004" to="391"/>
    <trip id="randflow146" depart="146.00" from="146" to="-413"/>
    <trip id="randflow147" depart="147.00" from="25" to="116"/>
    <trip id="randflow148" depart="148.00" from="-571" to="-1011"/>
    <trip id="randflow149" depart="149.00" from="-1123" to="566"/>
    <trip id="randflow150" depart="150.00" from="597" to="1138"/>
    <trip id="randflow151" depart="151.00" from="51" to="147"/>
    <trip id="randflow152" depart="152.00" from="-153" to="-152"/>
    <trip id="randflow153" depart="153.00" from="-37" to="595"/>
    <trip id="randflow154" depart="154.00" from="409" to="543"/>
    <trip id="randflow155" depart="155.00" from="595" to="-295"/>
    <trip id="randflow156" depart="156.00" from="-17" to="-146"/>
    <trip id="randflow157" depart="157.00" from="391" to="569"/>
    <trip id="randflow158" depart="158.00" from="-549" to="156"/>
    <trip id="randflow159" depart="159.00" from="-156" to="718"/>
    <trip id="randflow160" depart="160.00" from="543" to="949"/>
    <trip id="randflow161" depart="161.00" from="422" to="566"/>
    <trip id="randflow162" depart="162.00" from="-1016" to="25"/>
    <trip id="randflow163" depart="163.00" from="-413" to="728"/>
    <trip id="randflow164" depart="164.00" from="413" to="543"/>
    <trip id="randflow165" depart="165.00" from="422" to="-416"/>
    <trip id="randflow166" depart="166.00" from="397" to="-1492"/>
    <trip id="randflow167" depart="167.00" from="549" to="542"/>
    <trip id="randflow168" depart="168.00" from="-1660" to="430"/>
    <trip id="randflow169" depart="169.00" from="-707" to="-537"/>
    <trip id="randflow170" depart="170.00" from="409" to="-325"/>
    <trip id="randflow171" depart="171.00" from="-1016" to="-19"/>
    <trip id="randflow172" depart="172.00" from="-409" to="543"/>
    <trip id="randflow173" depart="173.00" from="944" to="-428"/>
    <trip id="randflow174" depart="174.00" from="147" to="-730"/>
    <trip id="randflow175" depart="175.00" from="953" to="1121"/>
    <trip id="randflow176" depart="176.00" from="730" to="-1493"/>
    <trip id="randflow177" depart="177.00" from="945" to="-1694"/>
    <trip id="randflow178" depart="178.00" from="943" to="-413"/>
    <trip id="randflow179" depart="179.00" from="-134" to="-945"/>
    <trip id="randflow180" depart="180.00" from="173" to="-540"/>
    <trip id="randflow181" depart="181.00" from="1121" to="106"/>
    <trip id="randflow182" depart="182.00" from="-540" to="146"/>
    <trip id="randflow183" depart="183.00" from="-1706" to="1694"/>
    <trip id="randflow184" depart="184.00" from="-1004" to="718"/>
    <trip id="randflow185" depart="185.00" from="1004" to="1706"/>
    <trip id="randflow186" depart="186.00" from="25" to="1646"/>
    <trip id="randflow187" depart="187.00" from="-49" to="-1121"/>
    <trip id="randflow188" depart="188.00" from="152" to="-543"/>
    <trip id="randflow189" depart="189.00" from="-393" to="540"/>
    <trip id="randflow190" depart="190.00" from="17" to="-52"/>
    <trip id="randflow191" depart="191.00" from="-391" to="-84"/>
    <trip id="randflow192" depart="192.00" from="-549" to="-51"/>
    <trip id="randflow193" depart="193.00" from="-1493" to="-939"/>
    <trip id="randflow194" depart="194.00" from="836" to="1648"/>
    <trip id="randflow195" depart="195.00" from="597" to="154"/>
    <trip id="randflow196" depart="196.00" from="-33" to="115"/>
    <trip id="randflow197" depart="197.00" from="-1004" to="-432"/>
    <trip id="randflow198" depart="198.00" from="-571" to="147"/>
    <trip id="randflow199" depart="199.00" from="15" to="1004"/>
    <trip id="randflow200" depart="200.00" from="-597" to="-297"/>
    <trip id="randflow201" depart="201.00" from="-730" to="595"/>
    <trip id="randflow202" depart="202.00" from="409" to="-1646"/>
    <trip id="randflow203" depart="203.00" from="-115" to="108"/>
    <trip id="randflow204" depart="204.00" from="134" to="-549"/>
    <trip id="randflow205" depart="205.00" from="430" to="3"/>
    <trip id="randflow206" depart="206.00" from="153" to="-325"/>
    <trip id="randflow207" depart="207.00" from="-1642" to="-1016"/>
    <trip id="randflow208" depart="208.00" from="-1694" to="1011"/>
    <trip id="randflow209" depart="209.00" from="54" to="-1123"/>
    <trip id="randflow210" depart="210.00" from="-558" to="1606"/>
    <trip id="randflow211" depart="211.00" from="-1640" to="1671"/>
    <trip id="randflow212" depart="212.00" from="-939" to="-393"/>
    <trip id="randflow213" depart="213.00" from="15" to="-1007"/>
    <trip id="randflow214" depart="214.00" from="297" to="37"/>
    <trip id="randflow215" depart="215.00" from="-13" to="-943"/>
    <trip id="randflow216" depart="216.00" from="-1616" to="943"/>
    <trip id="randflow217" depart="217.00" from="-953" to="-108"/>
    <trip id="randflow218" depart="218.00" from="-17" to="540"/>
    <trip id="randflow219" depart="219.00" from="-705" to="416"/>
    <trip id="randflow220" depart="220.00" from="152" to="963"/>
    <trip id="randflow221" depart="221.00" from="1119" to="9"/>
    <trip id="randflow222" depart="222.00" from="571" to="154"/>
    <trip id="randflow223" depart="223.00" from="1694" to="1031"/>
    <trip id="randflow224" depart="224.00" from="49" to="115"/>
    <trip id="randflow225" depart="225.00" from="595" to="297"/>
    <trip id="randflow226" depart="226.00" from="-730" to="-409"/>
    <trip id="randflow227" depart="227.00" from="-1694" to="1616"/>
    <trip id="randflow228" depart="228.00" from="325" to="11"/>
    <trip id="randflow229" depart="229.00" from="13" to="-422"/>
    <trip id="randflow230" depart="230.00" from="-1123" to="-432"/>
    <trip id="randflow231" depart="231.00" from="-25" to="-541"/>
    <trip id="randflow232" depart="232.00" from="1004" to="-154"/>
    <trip id="randflow233" depart="233.00" from="-1669" to="1669"/>
    <trip id="randflow234" depart="234.00" from="1646" to="-112"/>
    <trip id="randflow235" depart="235.00" from="-554" to="1138"/>
    <trip id="randflow236" depart="236.00" from="-558" to="-295"/>
    <trip id="randflow237" depart="237.00" from="-566" to="597"/>
    <trip id="randflow238" depart="238.00" from="106" to="1669"/>
    <trip id="randflow239" depart="239.00" from="541" to="33"/>
    <trip id="randflow240" depart="240.00" from="-54" to="-1007"/>
    <trip id="randflow241" depart="241.00" from="-430" to="301"/>
    <trip id="randflow242" depart="242.00" from="540" to="939"/>
    <trip id="randflow243" depart="243.00" from="-566" to="297"/>
    <trip id="randflow244" depart="244.00" from="1007" to="152"/>
    <trip id="randflow245" depart="245.00" from="-1660" to="-3"/>
    <trip id="randflow246" depart="246.00" from="-595" to="-1024"/>
    <trip id="randflow247" depart="247.00" from="-413" to="1656"/>
    <trip id="randflow248" depart="248.00" from="-549" to="-1643"/>
    <trip id="randflow249" depart="249.00" from="-728" to="-152"/>
    <trip id="randflow250" depart="250.00" from="124" to="-1016"/>
    <trip id="randflow251" depart="251.00" from="-542" to="124"/>
    <trip id="randflow252" depart="252.00" from="-1016" to="1619"/>
    <trip id="randflow253" depart="253.00" from="-150" to="-984"/>
    <trip id="randflow254" depart="254.00" from="-106" to="-705"/>
    <trip id="randflow255" depart="255.00" from="-1648" to="-542"/>
    <trip id="randflow256" depart="256.00" from="301" to="-705"/>
    <trip id="randflow257" depart="257.00" from="297" to="52"/>
    <trip id="randflow258" depart="258.00" from="-17" to="-116"/>
    <trip id="randflow259" depart="259.00" from="-1015" to="1123"/>
    <trip id="randflow260" depart="260.00" from="984" to="-569"/>
    <trip id="randflow261" depart="261.00" from="1493" to="397"/>
    <trip id="randflow262" depart="262.00" from="1493" to="301"/>
    <trip id="randflow263" depart="263.00" from="9" to="-191"/>
    <trip id="randflow264" depart="264.00" from="-1015" to="-1616"/>
    <trip id="randflow265" depart="265.00" from="-1493" to="1646"/>
    <trip id="randflow266" depart="266.00" from="1016" to="-3"/>
    <trip id="randflow267" depart="267.00" from="1642" to="37"/>
    <trip id="randflow268" depart="268.00" from="-1606" to="152"/>
    <trip id="randflow269" depart="269.00" from="297" to="-1493"/>
    <trip id="randflow270" depart="270.00" from="430" to="944"/>
    <trip id="randflow271" depart="271.00" from="-134" to="-1016"/>
    <trip id="randflow272" depart="272.00" from="-391" to="1648"/>
    <trip id="randflow273" depart="273.00" from="943" to="-728"/>
    <trip id="randflow274" depart="274.00" from="1694" to="-115"/>
    <trip id="randflow275" depart="275.00" from="1616" to="1606"/>
    <trip id="randflow276" depart="276.00" from="-124" to="391"/>
    <trip id="randflow277" depart="277.00" from="54" to="150"/>
    <trip id="randflow278" depart="278.00" from="-147" to="958"/>
    <trip id="randflow279" depart="279.00" from="393" to="-569"/>
    <trip id="randflow280" depart="280.00" from="-571" to="-598"/>
    <trip id="randflow281" depart="281.00" from="-945" to="-566"/>
    <trip id="randflow282" depart="282.00" from="54" to="432"/>
    <trip id="randflow283" depart="283.00" from="-13" to="943"/>
    <trip id="randflow284" depart="284.00" from="146" to="51"/>
    <trip id="randflow285" depart="285.00" from="1646" to="-949"/>
    <trip id="randflow286" depart="286.00" from="191" to="944"/>
    <trip id="randflow287" depart="287.00" from="-191" to="422"/>
    <trip id="randflow288" depart="288.00" from="1004" to="1015"/>
    <trip id="randflow289" depart="289.00" from="-595" to="191"/>
    <trip id="randflow290" depart="290.00" from="-191" to="541"/>
    <trip id="randflow291" depart="291.00" from="49" to="-124"/>
    <trip id="randflow292" depart="292.00" from="566" to="-393"/>
    <trip id="randflow293" depart="293.00" from="-718" to="153"/>
    <trip id="randflow294" depart="294.00" from="-54" to="-1024"/>
    <trip id="randflow295" depart="295.00" from="540" to="-1694"/>
    <trip id="randflow296" depart="296.00" from="-1648" to="413"/>
    <trip id="randflow297" depart="297.00" from="-416" to="566"/>
    <trip id="randflow298" depart="298.00" from="1643" to="-428"/>
    <trip id="randflow299" depart="299.00" from="-1011" to="84"/>
    <trip id="randflow300" depart="300.00" from="-115" to="173"/>
    <trip id="randflow301" depart="301.00" from="-9" to="325"/>
    <trip id="randflow302" depart="302.00" from="1616" to="1623"/>
    <trip id="randflow303" depart="303.00" from="-939" to="409"/>
    <trip id="randflow304" depart="304.00" from="-116" to="-301"/>
    <trip id="randflow305" depart="305.00" from="1628" to="-537"/>
    <trip id="randflow306" depart="306.00" from="106" to="1011"/>
    <trip id="randflow307" depart="307.00" from="-970" to="-944"/>
    <trip id="randflow308" depart="308.00" from="295" to="-543"/>
    <trip id="randflow309" depart="309.00" from="1643" to="-416"/>
    <trip id="randflow310" depart="310.00" from="-17" to="-15"/>
    <trip id="randflow311" depart="311.00" from="-1640" to="-15"/>
    <trip id="randflow312" depart="312.00" from="-984" to="33"/>
    <trip id="randflow313" depart="313.00" from="-1623" to="-3"/>
    <trip id="randflow314" depart="314.00" from="-84" to="19"/>
    <trip id="randflow315" depart="315.00" from="949" to="1119"/>
    <trip id="randflow316" depart="316.00" from="-297" to="-146"/>
    <trip id="randflow317" depart="317.00" from="-1640" to="-325"/>
    <trip id="randflow318" depart="318.00" from="-1619" to="-1013"/>
    <trip id="randflow319" depart="319.00" from="-984" to="-422"/>
    <trip id="randflow320" depart="320.00" from="949" to="116"/>
    <trip id="randflow321" depart="321.00" from="1642" to="-152"/>
    <trip id="randflow322" depart="322.00" from="543" to="1024"/>
    <trip id="randflow323" depart="323.00" from="549" to="134"/>
    <trip id="randflow324" depart="324.00" from="-728" to="-953"/>
    <trip id="randflow325" depart="325.00" from="-1623" to="-108"/>
    <trip id="randflow326" depart="326.00" from="836" to="1013"/>
    <trip id="randflow327" depart="327.00" from="430" to="-730"/>
    <trip id="randflow328" depart="328.00" from="-1121" to="1606"/>
    <trip id="randflow329" depart="329.00" from="-108" to="-157"/>
    <trip id="randflow330" depart="330.00" from="1016" to="-537"/>
    <trip id="randflow331" depart="331.00" from="970" to="-15"/>
    <trip id="randflow332" depart="332.00" from="325" to="152"/>
    <trip id="randflow333" depart="333.00" from="405" to="-325"/>
    <trip id="randflow334" depart="334.00" from="-958" to="-963"/>
    <trip id="randflow335" depart="335.00" from="-597" to="543"/>
    <trip id="randflow336" depart="336.00" from="963" to="-537"/>
    <trip id="randflow337" depart="337.00" from="116" to="153"/>
    <trip id="randflow338" depart="338.00" from="25" to="84"/>
    <trip id="randflow339" depart="339.00" from="-1646" to="-297"/>
    <trip id="randflow340" depart="340.00" from="150" to="-1628"/>
    <trip id="randflow341" depart="341.00" from="-1616" to="-115"/>
    <trip id="randflow342" depart="342.00" from="-1004" to="-963"/>
    <trip id="randflow343" depart="343.00" from="1119" to="-49"/>
    <trip id="randflow344" depart="344.00" from="-1669" to="1694"/>
    <trip id="randflow345" depart="345.00" from="1643" to="-970"/>
    <trip id="randflow346" depart="346.00" from="1616" to="707"/>
    <trip id="randflow347" depart="347.00" from="397" to="157"/>
    <trip id="randflow348" depart="348.00" from="150" to="728"/>
    <trip id="randflow349" depart="349.00" from="-569" to="1138"/>
    <trip id="randflow350" depart="350.00" from="1492" to="598"/>
    <trip id="randflow351" depart="351.00" from="432" to="-1123"/>
    <trip id="randflow352" depart="352.00" from="-1606" to="-537"/>
    <trip id="randflow353" depart="353.00" from="297" to="13"/>
    <trip id="randflow354" depart="354.00" from="-3" to="-150"/>
    <trip id="randflow355" depart="355.00" from="1616" to="1671"/>
    <trip id="randflow356" depart="356.00" from="836" to="1026"/>
    <trip id="randflow357" depart="357.00" from="-939" to="-116"/>
    <trip id="randflow358" depart="358.00" from="-1026" to="-945"/>
    <trip id="randflow359" depart="359.00" from="-397" to="-397"/>
    <trip id="randflow360" depart="360.00" from="-116" to="943"/>
    <trip id="randflow361" depart="361.00" from="51" to="146"/>
    <trip id="randflow362" depart="362.00" from="9" to="984"/>
    <trip id="randflow363" depart="363.00" from="153" to="-416"/>
    <trip id="randflow364" depart="364.00" from="-1026" to="301"/>
    <trip id="randflow365" depart="365.00" from="-728" to="1628"/>
    <trip id="randflow366" depart="366.00" from="705" to="-1694"/>
    <trip id="randflow367" depart="367.00" from="108" to="1614"/>
    <trip id="randflow368" depart="368.00" from="-939" to="-13"/>
    <trip id="randflow369" depart="369.00" from="-428" to="-549"/>
    <trip id="randflow370" depart="370.00" from="153" to="542"/>
    <trip id="randflow371" depart="371.00" from="-409" to="1669"/>
    <trip id="randflow372" depart="372.00" from="-3" to="84"/>
    <trip id="randflow373" depart="373.00" from="428" to="115"/>
    <trip id="randflow374" depart="374.00" from="-705" to="-540"/>
    <trip id="randflow375" depart="375.00" from="-405" to="945"/>
    <trip id="randflow376" depart="376.00" from="-549" to="108"/>
    <trip id="randflow377" depart="377.00" from="963" to="1640"/>
    <trip id="randflow378" depart="378.00" from="1007" to="-9"/>
    <trip id="randflow379" depart="379.00" from="-1628" to="-595"/>
    <trip id="randflow380" depart="380.00" from="3" to="157"/>
    <trip id="randflow381" depart="381.00" from="301" to="-25"/>
    <trip id="randflow382" depart="382.00" from="1011" to="718"/>
    <trip id="randflow383" depart="383.00" from="-595" to="1671"/>
    <trip id="randflow384" depart="384.00" from="-147" to="949"/>
    <trip id="randflow385" depart="385.00" from="1123" to="-391"/>
    <trip id="randflow386" depart="386.00" from="-156" to="115"/>
    <trip id="randflow387" depart="387.00" from="1013" to="-13"/>
    <trip id="randflow388" depart="388.00" from="970" to="7"/>
    <trip id="randflow389" depart="389.00" from="-707" to="-15"/>
    <trip id="randflow390" depart="390.00" from="51" to="1025"/>
    <trip id="randflow391" depart="391.00" from="1694" to="1031"/>
    <trip id="randflow392" depart="392.00" from="-25" to="52"/>
    <trip id="randflow393" depart="393.00" from="953" to="-393"/>
    <trip id="randflow394" depart="394.00" from="1011" to="-707"/>
    <trip id="randflow395" depart="395.00" from="707" to="1031"/>
    <trip id="randflow396" depart="396.00" from="566" to="543"/>
    <trip id="randflow397" depart="397.00" from="-295" to="409"/>
    <trip id="randflow398" depart="398.00" from="-558" to="728"/>
    <trip id="randflow399" depart="399.00" from="-945" to="432"/>
    <trip id="randflow400" depart="400.00" from="-297" to="-51"/>
    <trip id="randflow401" depart="401.00" from="108" to="984"/>
    <trip id="randflow402" depart="402.00" from="-9" to="-157"/>
    <trip id="randflow403" depart="403.00" from="1004" to="-566"/>
    <trip id="randflow404" depart="404.00" from="1013" to="1138"/>
    <trip id="randflow405" depart="405.00" from="-705" to="-541"/>
    <trip id="randflow406" depart="406.00" from="-1628" to="1671"/>
    <trip id="randflow407" depart="407.00" from="1025" to="-33"/>
    <trip id="randflow408" depart="408.00" from="37" to="-106"/>
    <trip id="randflow409" depart="409.00" from="295" to="1693"/>
    <trip id="randflow410" depart="410.00" from="422" to="-707"/>
    <trip id="randflow411" depart="411.00" from="152" to="432"/>
    <trip id="randflow412" depart="412.00" from="953" to="1025"/>
    <trip id="randflow413" depart="413.00" from="-1025" to="1026"/>
    <trip id="randflow414" depart="414.00" from="11" to="554"/>
    <trip id="randflow415" depart="415.00" from="558" to="-953"/>
    <trip id="randflow416" depart="416.00" from="-963" to="-970"/>
    <trip id="randflow417" depart="417.00" from="17" to="-84"/>
    <trip id="randflow418" depart="418.00" from="15" to="-1628"/>
    <trip id="randflow419" depart="419.00" from="-728" to="945"/>
    <trip id="randflow420" depart="420.00" from="-416" to="1669"/>
    <trip id="randflow421" depart="421.00" from="1493" to="541"/>
    <trip id="randflow422" depart="422.00" from="540" to="542"/>
    <trip id="randflow423" depart="423.00" from="-54" to="-540"/>
    <trip id="randflow424" depart="424.00" from="1694" to="325"/>
    <trip id="randflow425" depart="425.00" from="549" to="-1025"/>
    <trip id="randflow426" depart="426.00" from="-112" to="1614"/>
    <trip id="randflow427" depart="427.00" from="707" to="984"/>
    <trip id="randflow428" depart="428.00" from="295" to="-945"/>
    <trip id="randflow429" depart="429.00" from="-124" to="1614"/>
    <trip id="randflow430" depart="430.00" from="549" to="-953"/>
    <trip id="randflow431" depart="431.00" from="1628" to="597"/>
    <trip id="randflow432" depart="432.00" from="-1031" to="413"/>
    <trip id="randflow433" depart="433.00" from="-301" to="-7"/>
    <trip id="randflow434" depart="434.00" from="-153" to="112"/>
    <trip id="randflow435" depart="435.00" from="1024" to="409"/>
    <trip id="randflow436" depart="436.00" from="-1614" to="-115"/>
    <trip id="randflow437" depart="437.00" from="549" to="156"/>